Version 4
SHEET 1 880 680
WIRE -720 96 -720 48
WIRE -496 96 -496 48
WIRE -304 96 -304 48
WIRE 176 112 176 80
WIRE 192 112 176 112
WIRE 128 128 96 128
WIRE 176 128 176 112
WIRE 192 128 192 112
WIRE 128 144 128 128
WIRE 144 144 128 144
WIRE 304 160 208 160
WIRE 144 176 96 176
WIRE -720 208 -720 176
WIRE -496 208 -496 176
WIRE -304 208 -304 176
WIRE 160 208 160 192
WIRE 176 208 176 192
WIRE 176 208 160 208
WIRE 192 208 192 192
WIRE 192 208 176 208
WIRE 176 224 176 208
FLAG 176 224 0
FLAG -496 208 0
FLAG -496 48 3V3
FLAG 176 80 3V3
FLAG 304 160 OUT
FLAG -304 208 0
FLAG -304 48 Vin
FLAG 96 176 Vin
FLAG -720 208 0
FLAG -720 48 Vs
FLAG 96 128 Vs
SYMBOL Comparators\\LT1719 176 96 R0
SYMATTR InstName U1
SYMBOL voltage -496 80 R0
WINDOW 123 0 0 Left 0
WINDOW 39 0 0 Left 0
SYMATTR InstName V1
SYMATTR Value 3.3
SYMBOL voltage -304 80 R0
WINDOW 3 -131 -131 Left 2
WINDOW 123 0 0 Left 0
WINDOW 39 0 0 Left 0
SYMATTR Value PULSE(0 500m 0 1n 1n 1n 0 1)
SYMATTR InstName V2
SYMBOL voltage -720 80 R0
WINDOW 123 0 0 Left 0
WINDOW 39 0 0 Left 0
SYMATTR InstName Vs
SYMATTR Value 0.1
TEXT 304 56 Left 2 !.tran 10n
TEXT -856 264 Left 2 ;Vs = Tensione di soglia
