Version 4
SHEET 1 880 680
WIRE -64 -256 -64 -304
WIRE 160 -256 160 -304
WIRE -64 -144 -64 -176
WIRE 160 -144 160 -176
WIRE -672 96 -704 96
WIRE -608 96 -672 96
WIRE -512 96 -608 96
WIRE -368 96 -448 96
WIRE -320 96 -368 96
WIRE -272 96 -320 96
WIRE 176 112 176 80
WIRE 192 112 176 112
WIRE 128 128 96 128
WIRE 176 128 176 112
WIRE 192 128 192 112
WIRE -704 144 -704 96
WIRE -608 144 -608 96
WIRE -368 144 -368 96
WIRE -272 144 -272 96
WIRE 128 144 128 128
WIRE 144 144 128 144
WIRE 304 160 208 160
WIRE 144 176 96 176
WIRE 160 208 160 192
WIRE 176 208 176 192
WIRE 176 208 160 208
WIRE 192 208 192 192
WIRE 192 208 176 208
WIRE 176 224 176 208
WIRE -704 256 -704 224
WIRE -656 256 -704 256
WIRE -608 256 -608 224
WIRE -608 256 -656 256
WIRE -368 256 -368 224
WIRE -304 256 -368 256
WIRE -272 256 -272 208
WIRE -272 256 -304 256
WIRE -656 288 -656 256
WIRE -304 288 -304 256
FLAG 176 224 0
FLAG 160 -144 0
FLAG 160 -304 3V3
FLAG 176 80 3V3
FLAG 304 160 OUT
FLAG -656 288 0
FLAG -672 96 Vsig
FLAG 96 176 Vin
FLAG -64 -144 0
FLAG -64 -304 Vs
FLAG 96 128 Vs
FLAG -304 288 0
FLAG -320 96 Vin
SYMBOL Comparators\\LT1719 176 96 R0
SYMATTR InstName U1
SYMBOL voltage 160 -272 R0
WINDOW 123 0 0 Left 0
WINDOW 39 0 0 Left 0
SYMATTR InstName V1
SYMATTR Value 3.3
SYMBOL voltage -704 128 R0
WINDOW 3 -131 -131 Left 2
WINDOW 123 0 0 Left 0
WINDOW 39 0 0 Left 0
SYMATTR Value PULSE(0 {Vmax} 0 1n 1n 1n 0 1)
SYMATTR InstName V2
SYMBOL voltage -64 -272 R0
WINDOW 123 0 0 Left 0
WINDOW 39 0 0 Left 0
SYMATTR InstName Vs
SYMATTR Value 0.1
SYMBOL res -384 128 R0
SYMATTR InstName R3
SYMATTR Value 180
SYMBOL res -624 128 R0
SYMATTR InstName R2
SYMATTR Value 47
SYMBOL cap -288 144 R0
SYMATTR InstName C1
SYMATTR Value 50p
SYMBOL schottky -512 112 R270
WINDOW 0 32 32 VTop 2
WINDOW 3 0 32 VBottom 2
SYMATTR InstName D1
SYMATTR Value RB511VM-30
SYMATTR Description Diode
SYMATTR Type diode
TEXT -824 -208 Left 2 !.tran 50n
TEXT -200 -88 Left 2 ;Vs = Tensione di soglia
TEXT -824 -152 Left 2 !.step param Vmax 500m 2 500m
TEXT -824 -104 Left 2 !.lib opamp.sub
